testData/tamu2000/pfcases_100_zone3/Equ_tx2000_hr_4894_mod_v23_zone3_pslf.raw
0  100.000 
THIS IS A SYNTHETIC POWER SYSTEM MODEL THAT DOES NOT REPRESE
DATA RESEARCH PROJECT AND CONTAINS NO CEII.
1048,  2,  133.298,  4.556,  0.000,  0.000,  1,  1.00000,  -69.9110,  'MONAHANS',  18.000,  9
1049,  2,  88.178,  12.724,  0.000,  0.000,  1,  1.00000,  -62.7628,  'MONAHANS',  18.000,  9
1053,  2,  81.473,  -13.889,  0.000,  0.000,  1,  1.00749,  -82.9702,  'MONAHANS',  230.00,  9
1072,  3,  114.660,  -7.162,  0.000,  0.000,  1,  1.01000,  -80.9119,  'ODESSA 1',  18.000,  9
1073,  2,  78.158,  -5.284,  0.000,  0.000,  1,  1.01000,  -79.4911,  'ODESSA 1',  18.000,  9
1074,  2,  80.825,  -1.611,  0.000,  0.000,  1,  1.01000,  -79.8810,  'ODESSA 1',  18.000,  9
1075,  2,  96.834,  -4.547,  0.000,  0.000,  1,  1.01000,  -81.4397,  'ODESSA 1',  18.000,  9
1076,  2,  176.990,  -19.197,  0.000,  0.000,  1,  1.01000,  -84.5821,  'ODESSA 1',  18.000,  9
1077,  2,  82.663,  -2.548,  0.000,  0.000,  1,  1.01000,  -80.1314,  'ODESSA 1',  18.000,  9
1081,  2,  446.586,  -96.050,  0.000,  0.000,  1,  1.01350,  -86.1730,  'ODESSA 1',  230.00,  9
2004,  2,  124.706,  -21.703,  0.000,  0.000,  2,  1.02000,  -90.5247,  'SAVOY 2 ',  13.800,  11
2005,  2,  107.058,  -18.773,  0.000,  0.000,  2,  1.02000,  -90.3636,  'SAVOY 3 ',  13.800,  11
2006,  2,  72.469,  -12.319,  0.000,  0.000,  2,  1.02000,  -89.7442,  'SAVOY 4 ',  13.800,  11
2024,  2,  85.046,  -14.404,  0.000,  0.000,  2,  1.02271,  -89.3128,  'PARIS 2 ',  13.800,  11
2057,  3,  339.177,  -150.758,  0.000,  0.000,  2,  0.99000,  -92.6145,  'WICHITA ',  18.000,  11
2103,  2,  178.109,  -25.778,  0.000,  0.000,  2,  1.02304,  -91.5399,  'SHERMAN ',  20.000,  11
2104,  2,  134.131,  -19.038,  0.000,  0.000,  2,  1.02190,  -91.3686,  'SHERMAN ',  20.000,  11
2105,  2,  81.883,  -12.735,  0.000,  0.000,  2,  1.01926,  -90.9444,  'SHERMAN ',  20.000,  11
2115,  2,  60.219,  -11.000,  0.000,  0.000,  2,  1.01968,  -88.1839,  'PARIS 1 ',  13.800,  11
2116,  2,  106.623,  -17.683,  0.000,  0.000,  2,  1.02345,  -89.2724,  'PARIS 1 ',  13.800,  11
2117,  2,  53.724,  -9.159,  0.000,  0.000,  2,  1.01781,  -87.8270,  'PARIS 1 ',  13.800,  11
2118,  2,  53.770,  -9.400,  0.000,  0.000,  2,  1.01681,  -87.5409,  'PARIS 1 ',  13.800,  11
2119,  2,  83.831,  -14.907,  0.000,  0.000,  2,  1.02254,  -89.0164,  'PARIS 1 ',  13.800,  11
2120,  2,  52.819,  -9.285,  0.000,  0.000,  2,  1.01737,  -87.6546,  'PARIS 1 ',  13.800,  11
3045,  2,  130.497,  -20.247,  0.000,  0.000,  3,  1.04000,  -87.9912,  'SILVER 4',  13.800,  27
3106,  3,  39.618,  -7.505,  0.000,  0.000,  3,  1.00000,  -93.7670,  'BUCHANAN',  13.200,  28
4026,  2,  279.009,  5.014,  0.000,  0.000,  4,  1.03000,  -91.7603,  'CHRISTIN',  13.800,  20
4030,  3,  253.905,  6.949,  0.000,  0.000,  4,  1.01000,  -80.8151,  'FANNIN 2',  13.800,  21
4058,  2,  47.039,  15.522,  0.000,  0.000,  4,  1.03000,  -100.0275,  'GREGORY ',  13.800,  21
4059,  2,  64.277,  12.710,  0.000,  0.000,  4,  1.03000,  -100.4459,  'GREGORY ',  13.800,  21
4060,  2,  35.895,  10.972,  0.000,  0.000,  4,  1.03000,  -98.8495,  'GREGORY ',  13.800,  21
4061,  2,  48.437,  15.928,  0.000,  0.000,  4,  1.03000,  -99.5540,  'GREGORY ',  13.800,  21
4062,  2,  39.740,  12.556,  0.000,  0.000,  4,  1.03000,  -98.7767,  'GREGORY ',  13.800,  21
4063,  2,  47.522,  16.302,  0.000,  0.000,  4,  1.03000,  -99.4936,  'GREGORY ',  13.800,  21
4082,  2,  102.580,  9.587,  0.000,  0.000,  4,  1.04000,  -104.9015,  'CORPUS C',  13.800,  21
4083,  2,  113.071,  9.288,  0.000,  0.000,  4,  1.04000,  -105.2756,  'CORPUS C',  13.800,  21
4084,  2,  195.417,  12.616,  0.000,  0.000,  4,  1.04000,  -107.2593,  'CORPUS C',  13.800,  21
4085,  2,  240.957,  7.974,  0.000,  0.000,  4,  1.04000,  -106.6931,  'CORPUS C',  13.800,  21
4115,  2,  191.456,  -24.552,  0.000,  0.000,  4,  1.04000,  -111.5363,  'LAREDO 1',  13.800,  20
4116,  2,  181.964,  -24.973,  0.000,  0.000,  4,  1.04000,  -111.4831,  'LAREDO 1',  13.800,  20
4160,  2,  227.549,  24.581,  0.000,  0.000,  4,  1.03000,  -104.1084,  'CORPUS C',  13.800,  21
4161,  2,  87.695,  18.676,  0.000,  0.000,  4,  1.03000,  -101.9037,  'CORPUS C',  13.800,  21
4162,  2,  88.880,  16.966,  0.000,  0.000,  4,  1.03000,  -101.9547,  'CORPUS C',  13.800,  21
4192,  2,  1616.747,  -71.627,  0.000,  0.000,  4,  1.02000,  -116.9856,  'BROWNSVI',  230.00,  19
5037,  2,  270.457,  -2.196,  0.000,  0.000,  5,  1.02138,  -90.3198,  'DALLAS 1',  13.200,  16
5038,  2,  262.086,  -1.440,  0.000,  0.000,  5,  1.02114,  -90.2538,  'DALLAS 1',  13.200,  16
5039,  2,  620.836,  -18.667,  0.000,  0.000,  5,  1.02392,  -91.4441,  'DALLAS 1',  13.200,  16
5040,  2,  204.017,  -1.308,  0.000,  0.000,  5,  1.02000,  -89.5921,  'DALLAS 1',  13.200,  16
5041,  2,  288.025,  -4.448,  0.000,  0.000,  5,  1.02189,  -90.4446,  'DALLAS 1',  13.200,  16
5042,  2,  244.921,  -1.110,  0.000,  0.000,  5,  1.02073,  -90.1009,  'DALLAS 1',  13.200,  16
5057,  2,  227.779,  -57.172,  0.000,  0.000,  5,  1.02685,  -89.2894,  'GRAHAM 2',  13.800,  12
5058,  2,  163.056,  -39.129,  0.000,  0.000,  5,  1.02430,  -88.3884,  'GRAHAM 3',  13.800,  12
5067,  2,  399.894,  -15.227,  0.000,  0.000,  5,  1.03000,  -90.5329,  'ARLINGTO',  13.800,  17
5068,  2,  380.281,  -15.298,  0.000,  0.000,  5,  1.03000,  -90.4228,  'ARLINGTO',  13.800,  17
5069,  2,  357.989,  -14.177,  0.000,  0.000,  5,  1.03000,  -90.2761,  'ARLINGTO',  13.800,  17
5166,  2,  189.530,  -22.615,  0.000,  0.000,  5,  1.04000,  -92.4720,  'DENTON 1',  13.800,  17
5206,  2,  128.877,  -22.429,  0.000,  0.000,  5,  1.02508,  -89.4670,  'POOLVILL',  13.800,  12
5207,  2,  232.573,  -43.367,  0.000,  0.000,  5,  1.02768,  -90.3631,  'POOLVILL',  13.800,  12
5208,  2,  183.952,  -33.743,  0.000,  0.000,  5,  1.02689,  -90.0952,  'POOLVILL',  13.800,  12
5262,  2,  431.273,  -34.743,  0.000,  0.000,  5,  1.01676,  -85.1089,  'GLEN ROS',  13.800,  18
5263,  2,  597.835,  -57.486,  0.000,  0.000,  5,  1.01944,  -86.3312,  'GLEN ROS',  13.800,  18
5281,  2,  184.236,  -4.751,  0.000,  0.000,  5,  1.01755,  -88.8801,  'TEMPLE 1',  13.800,  13
5282,  2,  214.883,  -5.562,  0.000,  0.000,  5,  1.01857,  -89.1422,  'TEMPLE 1',  13.800,  13
5283,  2,  287.670,  -10.374,  0.000,  0.000,  5,  1.01994,  -89.4782,  'TEMPLE 1',  13.800,  13
5298,  2,  347.669,  -28.536,  0.000,  0.000,  5,  1.03886,  -92.8287,  'MCKINNEY',  13.800,  16
5299,  2,  147.101,  -6.623,  0.000,  0.000,  5,  1.04000,  -92.6188,  'MCKINNEY',  13.800,  16
5300,  2,  180.552,  -9.562,  0.000,  0.000,  5,  1.04000,  -92.6886,  'MCKINNEY',  13.800,  16
5302,  2,  207.414,  -5.283,  0.000,  0.000,  5,  1.04000,  -90.4998,  'MCKINNEY',  13.800,  16
5303,  2,  285.133,  -13.900,  0.000,  0.000,  5,  1.04000,  -91.1414,  'MCKINNEY',  13.800,  16
5319,  2,  197.401,  -16.115,  0.000,  0.000,  5,  1.01844,  -89.1110,  'GRANBURY',  13.200,  18
5320,  2,  181.027,  -17.366,  0.000,  0.000,  5,  1.01811,  -88.9401,  'GRANBURY',  13.200,  18
5321,  2,  204.419,  -16.728,  0.000,  0.000,  5,  1.01874,  -89.1799,  'GRANBURY',  13.200,  18
5324,  2,  219.383,  0.756,  0.000,  0.000,  5,  1.04000,  -90.4713,  'DALLAS 2',  13.800,  17
5325,  2,  219.320,  2.363,  0.000,  0.000,  5,  1.04000,  -90.4666,  'DALLAS 2',  13.800,  17
5326,  2,  652.515,  -37.324,  0.000,  0.000,  5,  1.04000,  -92.2449,  'DALLAS 2',  13.800,  17
5360,  3,  190.474,  -11.903,  0.000,  0.000,  5,  1.01000,  -88.5323,  'RIESEL 1',  13.800,  13
5364,  2,  230.268,  -30.980,  0.000,  0.000,  5,  1.02655,  -90.4311,  'BRIDGEPO',  13.800,  12
5365,  2,  115.057,  -14.132,  0.000,  0.000,  5,  1.02402,  -89.5710,  'BRIDGEPO',  13.800,  12
5366,  2,  103.750,  -12.729,  0.000,  0.000,  5,  1.02345,  -89.3418,  'BRIDGEPO',  13.800,  12
5367,  2,  106.667,  -12.975,  0.000,  0.000,  5,  1.02353,  -89.3981,  'BRIDGEPO',  13.800,  12
5368,  2,  152.656,  -20.067,  0.000,  0.000,  5,  1.02538,  -90.0110,  'BRIDGEPO',  13.800,  12
5369,  2,  99.965,  -12.447,  0.000,  0.000,  5,  1.02316,  -89.2422,  'BRIDGEPO',  13.800,  12
5382,  2,  210.976,  4.138,  0.000,  0.000,  5,  1.04000,  -90.9426,  'ENNIS 2 ',  13.800,  14
5383,  2,  184.536,  5.606,  0.000,  0.000,  5,  1.04000,  -90.7811,  'ENNIS 3 ',  13.800,  14
5415,  2,  98.196,  -28.513,  0.000,  0.000,  5,  1.03023,  -90.3919,  'PALO PIN',  13.800,  12
5416,  2,  97.255,  -27.928,  0.000,  0.000,  5,  1.03011,  -90.3787,  'PALO PIN',  13.800,  12
5417,  2,  108.628,  -31.286,  0.000,  0.000,  5,  1.03060,  -90.5253,  'PALO PIN',  13.800,  12
5418,  2,  112.535,  -33.628,  0.000,  0.000,  5,  1.03106,  -90.5859,  'PALO PIN',  13.800,  12
5419,  2,  190.604,  -57.050,  0.000,  0.000,  5,  1.03243,  -91.0097,  'PALO PIN',  13.800,  12
5444,  2,  1422.128,  -151.403,  0.000,  0.000,  5,  1.02231,  -90.5651,  'MIDLOTHI',  500.00,  17
6006,  2,  79.254,  -5.240,  0.000,  0.000,  6,  1.04000,  -84.4864,  'BASTROP ',  13.800,  25
6007,  2,  125.714,  -7.367,  0.000,  0.000,  6,  1.04000,  -83.6849,  'BASTROP ',  13.800,  25
6008,  2,  64.224,  -1.950,  0.000,  0.000,  6,  1.04000,  -84.6138,  'BASTROP ',  13.800,  25
6009,  2,  43.929,  0.552,  0.000,  0.000,  6,  1.04000,  -84.0197,  'BASTROP ',  13.800,  25
6010,  2,  56.509,  -1.973,  0.000,  0.000,  6,  1.04000,  -84.4691,  'BASTROP ',  13.800,  25
6042,  2,  22.382,  3.402,  0.000,  0.000,  6,  1.04000,  -86.8311,  'AUSTIN 3',  13.800,  23
6062,  1,  328.007,  -7.159,  0.000,  0.000,  6,  1.01881,  -78.0426,  'BRENHAM ',  500.00,  25
6069,  2,  190.375,  -9.335,  0.000,  0.000,  6,  1.03000,  -84.9632,  'MARION 1',  18.000,  22
6070,  2,  80.073,  -1.934,  0.000,  0.000,  6,  1.03000,  -83.9809,  'MARION 1',  18.000,  22
6071,  2,  241.016,  -11.611,  0.000,  0.000,  6,  1.03000,  -85.1059,  'MARION 1',  18.000,  22
6072,  2,  94.564,  -1.745,  0.000,  0.000,  6,  1.03000,  -84.2793,  'MARION 1',  18.000,  22
6073,  2,  146.562,  -6.539,  0.000,  0.000,  6,  1.03000,  -84.7354,  'MARION 1',  18.000,  22
6074,  2,  147.750,  -7.557,  0.000,  0.000,  6,  1.03000,  -84.7432,  'MARION 1',  18.000,  22
6078,  2,  67.057,  -20.659,  0.000,  0.000,  6,  1.00502,  -76.7786,  'LA GRANG',  22.000,  25
6079,  2,  114.871,  -40.017,  0.000,  0.000,  6,  1.00932,  -77.3752,  'LA GRANG',  22.000,  25
6080,  2,  92.554,  -29.937,  0.000,  0.000,  6,  1.00791,  -77.1871,  'LA GRANG',  22.000,  25
6106,  2,  101.805,  -18.607,  0.000,  0.000,  6,  1.02165,  -78.5751,  'WINCHEST',  13.800,  25
6110,  2,  202.178,  -5.516,  0.000,  0.000,  6,  1.04000,  -86.7451,  'ROCKDALE',  13.800,  25
6111,  2,  204.938,  -5.087,  0.000,  0.000,  6,  1.04000,  -86.6334,  'ROCKDALE',  13.800,  25
6145,  2,  189.868,  11.487,  0.000,  0.000,  6,  1.03000,  -81.1289,  'SAN ANTO',  13.800,  22
6146,  2,  197.275,  12.306,  0.000,  0.000,  6,  1.03000,  -81.0807,  'SAN ANTO',  13.800,  22
6147,  3,  218.221,  6.980,  0.000,  0.000,  6,  1.03000,  -83.2138,  'SAN ANTO',  13.800,  22
6148,  2,  352.207,  5.168,  0.000,  0.000,  6,  1.03000,  -84.1631,  'SAN ANTO',  13.800,  22
6149,  2,  625.580,  -0.643,  0.000,  0.000,  6,  1.03000,  -84.6780,  'SAN ANTO',  13.800,  22
6164,  2,  123.911,  -5.426,  0.000,  0.000,  6,  1.03000,  -82.5934,  'SEGUIN 1',  13.800,  22
6165,  2,  111.784,  -5.159,  0.000,  0.000,  6,  1.03000,  -82.4207,  'SEGUIN 1',  13.800,  22
6166,  2,  254.131,  -16.528,  0.000,  0.000,  6,  1.03000,  -83.3966,  'SEGUIN 1',  13.800,  22
6167,  2,  140.593,  -6.659,  0.000,  0.000,  6,  1.03000,  -82.7812,  'SEGUIN 1',  13.800,  22
6188,  1,  291.478,  -7.366,  0.000,  0.000,  6,  0.99210,  -79.2673,  'COLUMBUS',  230.00,  25
6195,  1,  60.002,  -1.022,  0.000,  0.000,  6,  0.98621,  -83.6238,  'INDUSTRY',  115.00,  25
6214,  2,  67.313,  -7.732,  0.000,  0.000,  6,  1.04000,  -87.6049,  'MARBLE F',  13.800,  23
6215,  2,  315.863,  -64.782,  0.000,  0.000,  6,  1.04000,  -88.3495,  'MARBLE F',  13.800,  23
6216,  2,  120.787,  -19.615,  0.000,  0.000,  6,  1.04000,  -88.0273,  'MARBLE F',  13.800,  23
6243,  2,  141.578,  -0.890,  0.000,  0.000,  6,  1.04000,  -83.4564,  'ELMENDOR',  13.800,  22
6244,  2,  153.328,  -3.178,  0.000,  0.000,  6,  1.04000,  -82.5784,  'ELMENDOR',  13.800,  22
6245,  2,  180.289,  -5.618,  0.000,  0.000,  6,  1.04000,  -82.9260,  'ELMENDOR',  13.800,  22
6246,  2,  349.223,  -17.635,  0.000,  0.000,  6,  1.04000,  -83.8450,  'ELMENDOR',  13.800,  22
6247,  2,  286.681,  -16.319,  0.000,  0.000,  6,  1.04000,  -84.2068,  'ELMENDOR',  13.800,  22
6248,  2,  140.858,  -4.001,  0.000,  0.000,  6,  1.04000,  -83.5834,  'ELMENDOR',  13.800,  22
6249,  2,  127.735,  5.109,  0.000,  0.000,  6,  1.04000,  -83.0356,  'ELMENDOR',  13.800,  22
6257,  2,  109.460,  6.987,  0.000,  0.000,  6,  1.03244,  -86.3074,  'AUSTIN 2',  13.800,  23
6258,  2,  56.925,  3.639,  0.000,  0.000,  6,  1.03034,  -85.6746,  'AUSTIN 2',  13.800,  23
6260,  2,  123.165,  6.626,  0.000,  0.000,  6,  1.03207,  -85.9675,  'AUSTIN 2',  13.800,  23
6295,  2,  130.472,  -1.094,  0.000,  0.000,  6,  1.03366,  -85.9473,  'CEDAR CR',  13.800,  23
6296,  2,  152.336,  -1.737,  0.000,  0.000,  6,  1.03391,  -86.0513,  'CEDAR CR',  13.800,  23
6297,  2,  55.995,  1.205,  0.000,  0.000,  6,  1.03083,  -84.9966,  'CEDAR CR',  13.800,  23
6302,  2,  103.086,  -4.029,  0.000,  0.000,  6,  1.02107,  -82.8164,  'NEW BRAU',  22.000,  22
6303,  2,  284.663,  -10.265,  0.000,  0.000,  6,  1.02520,  -84.2124,  'NEW BRAU',  22.000,  22
6304,  2,  121.696,  -4.718,  0.000,  0.000,  6,  1.02216,  -83.1554,  'NEW BRAU',  22.000,  22
6305,  2,  101.985,  -4.285,  0.000,  0.000,  6,  1.02112,  -82.7900,  'NEW BRAU',  22.000,  22
6341,  1,  113.004,  -22.558,  0.000,  0.000,  6,  1.01037,  -84.0817,  'CHAPPELL',  115.00,  25
6349,  2,  1607.769,  -100.523,  0.000,  0.000,  6,  1.04000,  -87.8058,  'AUSTIN 1',  500.00,  23
7002,  1,  0.000,  0.000,  0.000,  0.000,  7,  1.03504,  -71.0539,  'PASADENA',  500.00,  4
7003,  1,  0.000,  0.000,  0.000,  0.000,  7,  1.02741,  -73.9375,  'PASADENA',  230.00,  4
7004,  1,  0.000,  0.000,  0.000,  0.000,  7,  1.02491,  -77.2042,  'PASADENA',  115.00,  4
7005,  2,  0.000,  0.000,  0.000,  0.000,  7,  1.04000,  -69.5008,  'PASADENA',  13.800,  4
7006,  2,  0.000,  0.000,  0.000,  0.000,  7,  1.04000,  -70.1710,  'PASADENA',  13.800,  4
7007,  2,  0.000,  0.000,  0.000,  0.000,  7,  1.04000,  -69.7243,  'PASADENA',  13.800,  4
7008,  2,  0.000,  0.000,  0.000,  0.000,  7,  1.04000,  -69.6566,  'PASADENA',  13.800,  4
7009,  2,  0.000,  0.000,  0.000,  0.000,  7,  1.04000,  -69.4978,  'PASADENA',  13.800,  4
7010,  1,  0.000,  0.000,  0.000,  0.000,  7,  1.00070,  -83.6409,  'PRAIRIE ',  115.00,  5
7011,  1,  0.000,  0.000,  0.000,  0.000,  7,  1.02671,  -82.1076,  'CONROE 1',  115.00,  5
7012,  1,  0.000,  0.000,  0.000,  0.000,  7,  0.99409,  -80.0888,  'SIMONTON',  115.00,  3
7013,  1,  0.000,  0.000,  0.000,  0.000,  7,  1.00976,  -81.6919,  'HOUSTON ',  115.00,  5
7014,  1,  0.000,  0.000,  0.000,  0.000,  7,  1.00780,  -80.2601,  'HOUSTON ',  115.00,  4
7015,  2,  0.000,  0.000,  0.000,  0.000,  7,  1.00780,  -80.2601,  'HOUSTON ',  18.000,  4
7016,  1,  0.000,  0.000,  0.000,  0.000,  7,  1.01670,  -78.1852,  'HOUSTON ',  115.00,  4
7017,  1,  0.000,  0.000,  0.000,  0.000,  7,  1.01351,  -80.9080,  'HOUSTON ',  115.00,  3
7026,  1,  0.000,  0.000,  0.000,  0.000,  7,  1.02017,  -77.8588,  'BACLIFF ',  115.00,  4
7027,  1,  0.000,  0.000,  0.000,  0.000,  7,  1.01189,  -80.8579,  'SPRING 1',  115.00,  5
7028,  1,  -0.351,  -318.080,  0.000,  0.000,  7,  1.02000,  -80.4268,  'HOUSTON ',  115.00,  3
7035,  1,  0.000,  0.000,  0.000,  0.000,  7,  1.02431,  -78.2955,  'CONROE 5',  230.00,  5
7036,  1,  0.000,  0.000,  0.000,  0.000,  7,  1.01713,  -80.0102,  'CONROE 5',  115.00,  5
7037,  1,  0.000,  0.000,  0.000,  0.000,  7,  1.02826,  -74.6429,  'SUGAR LA',  500.00,  3
7038,  1,  0.000,  0.000,  0.000,  0.000,  7,  1.01836,  -75.9512,  'SUGAR LA',  230.00,  3
7039,  1,  0.000,  0.000,  0.000,  0.000,  7,  1.01436,  -79.0994,  'SUGAR LA',  115.00,  3
7040,  1,  0.000,  0.000,  0.000,  0.000,  7,  1.02717,  -74.4842,  'DAYTON 0',  230.00,  4
7041,  1,  0.000,  0.000,  0.000,  0.000,  7,  1.02152,  -77.0613,  'DAYTON 1',  115.00,  4
7045,  2,  108.016,  -6.736,  0.000,  0.000,  7,  1.02251,  -74.4247,  'VICTORIA',  20.000,  6
7046,  2,  149.705,  -17.850,  0.000,  0.000,  7,  1.01273,  -75.0520,  'VICTORIA',  20.000,  6
7047,  1,  0.000,  0.000,  0.000,  0.000,  7,  1.02735,  -75.1404,  'KATY 1 0',  500.00,  3
7048,  1,  0.000,  0.000,  0.000,  0.000,  7,  1.02019,  -76.6513,  'KATY 1 1',  230.00,  3
7049,  1,  0.000,  0.000,  0.000,  0.000,  7,  1.01865,  -80.0706,  'KATY 1 2',  115.00,  3
7050,  1,  0.000,  0.000,  0.000,  0.000,  7,  1.00354,  -83.0876,  'MAGNOLIA',  115.00,  5
7051,  1,  0.000,  0.000,  0.000,  0.000,  7,  1.01202,  -81.0275,  'HOUSTON ',  115.00,  3
7052,  1,  0.000,  0.000,  0.000,  0.000,  7,  1.01149,  -79.5479,  'MISSOURI',  115.00,  3
7053,  1,  0.000,  0.000,  0.000,  0.000,  7,  1.01752,  -76.3990,  'RICHMOND',  115.00,  3
7054,  1,  0.000,  0.000,  0.000,  0.000,  7,  1.00402,  -80.8836,  'HOUSTON ',  115.00,  4
7055,  1,  0.000,  0.000,  0.000,  0.000,  7,  1.01330,  -79.3704,  'HOUSTON ',  115.00,  3
7056,  1,  0.000,  0.000,  0.000,  0.000,  7,  1.01984,  -78.2448,  'SPRING 8',  230.00,  5
7057,  1,  0.000,  0.000,  0.000,  0.000,  7,  1.00774,  -81.3414,  'SPRING 8',  115.00,  5
7058,  1,  239.375,  -46.637,  0.000,  0.000,  7,  0.98801,  -71.1389,  'POINT CO',  500.00,  6
7061,  2,  0.000,  0.000,  0.000,  0.000,  7,  1.00000,  -70.6579,  'POINT CO',  13.800,  6
7062,  2,  0.000,  0.000,  0.000,  0.000,  7,  1.00000,  -70.7006,  'POINT CO',  13.800,  6
7063,  2,  0.000,  0.000,  0.000,  0.000,  7,  1.00000,  -70.6669,  'POINT CO',  13.800,  6
7064,  2,  0.000,  0.000,  0.000,  0.000,  7,  0.99889,  -70.7743,  'POINT CO',  13.800,  6
7065,  2,  0.000,  0.000,  0.000,  0.000,  7,  1.00000,  -70.7427,  'POINT CO',  13.800,  6
7066,  2,  0.000,  0.000,  0.000,  0.000,  7,  1.00000,  -70.7110,  'POINT CO',  13.800,  6
7067,  1,  0.000,  0.000,  0.000,  0.000,  7,  0.99801,  -82.2661,  'HOUSTON ',  115.00,  3
7068,  1,  0.000,  0.000,  0.000,  0.000,  7,  0.98995,  -72.6109,  'EL CAMPO',  230.00,  1
7069,  1,  0.000,  0.000,  0.000,  0.000,  7,  0.99048,  -75.6672,  'EL CAMPO',  115.00,  1
7070,  1,  0.000,  0.000,  0.000,  0.000,  7,  1.01050,  -78.7333,  'HOUSTON ',  115.00,  4
7072,  1,  0.000,  0.000,  0.000,  0.000,  7,  1.01681,  -77.5349,  'DICKINSO',  115.00,  4
7073,  1,  0.000,  0.000,  0.000,  0.000,  7,  1.02339,  -74.8277,  'GALVESTO',  230.00,  2
7074,  1,  0.000,  0.000,  0.000,  0.000,  7,  1.02063,  -76.6862,  'GALVESTO',  115.00,  2
7075,  1,  -0.180,  -306.125,  0.000,  0.000,  7,  1.03000,  -78.0184,  'HOUSTON ',  115.00,  4
7076,  1,  0.000,  0.000,  0.000,  0.000,  7,  1.03728,  -70.2168,  'BAYTOWN ',  500.00,  4
7077,  1,  0.000,  0.000,  0.000,  0.000,  7,  1.03349,  -72.1023,  'BAYTOWN ',  230.00,  4
7078,  1,  0.000,  0.000,  0.000,  0.000,  7,  1.02506,  -75.6768,  'BAYTOWN ',  115.00,  4
7079,  2,  0.000,  0.000,  0.000,  0.000,  7,  1.04000,  -68.4694,  'BAYTOWN ',  13.800,  4
...
 0 /End of Bus data, Begin Generator data
1048,  '1',  234.140,  10.113,  165.530,  -36.100,  1.00000,  0,  390.240,  0.00000,  0.10170,  0.00000,  0.00000,  1.00000,  1,  100.0,  325.200,  97.560
1049,  '1',  234.140,  29.540,  165.530,  -36.100,  1.00000,  0,  390.240,  0.00000,  0.13490,  0.00000,  0.00000,  1.00000,  1,  100.0,  325.200,  97.560
1053,  '1',  103.700,  -19.850,  91.010,  -19.850,  1.00000,  0,  214.560,  0.00000,  0.16870,  0.00000,  0.00000,  1.00000,  1,  100.0,  178.800,  53.640
1072,  '1',  140.618,  -6.132,  97.800,  -21.330,  1.01000,  0,  230.560,  0.00000,  0.30820,  0.00000,  0.00000,  1.00000,  1,  100.0,  192.130,  57.640
1073,  '1',  111.440,  -6.916,  97.800,  -21.330,  1.01000,  0,  230.560,  0.00000,  0.19480,  0.00000,  0.00000,  1.00000,  1,  100.0,  192.130,  57.640
1074,  '1',  111.440,  -1.509,  97.800,  -21.330,  1.01000,  0,  230.560,  0.00000,  0.20960,  0.00000,  0.00000,  1.00000,  1,  100.0,  192.130,  57.640
1075,  '1',  111.440,  -3.040,  97.800,  -21.330,  1.01000,  0,  230.560,  0.00000,  0.12370,  0.00000,  0.00000,  1.00000,  1,  100.0,  192.130,  57.640
1076,  '1',  111.440,  -10.141,  97.800,  -21.330,  1.01000,  0,  230.560,  0.00000,  0.10660,  0.00000,  0.00000,  1.00000,  1,  100.0,  192.130,  57.640
1077,  '1',  111.440,  -2.665,  97.800,  -21.330,  1.01000,  0,  230.560,  0.00000,  0.15380,  0.00000,  0.00000,  1.00000,  1,  100.0,  192.130,  57.640
1081,  '1',  206.280,  -31.800,  145.830,  -31.800,  1.01000,  0,  343.800,  0.00000,  0.14960,  0.00000,  0.00000,  1.00000,  1,  100.0,  286.500,  85.950
2004,  '1',  117.540,  -39.527,  199.430,  -43.490,  1.02000,  0,  470.160,  0.00000,  0.10640,  0.00000,  0.00000,  1.00000,  1,  100.0,  391.800,  117.540
2005,  '1',  117.540,  -34.254,  199.430,  -43.490,  1.02000,  0,  470.160,  0.00000,  0.22750,  0.00000,  0.00000,  1.00000,  1,  100.0,  391.800,  117.540
2006,  '1',  117.540,  -21.000,  199.430,  -43.490,  1.02000,  0,  470.160,  0.00000,  0.20040,  0.00000,  0.00000,  1.00000,  1,  100.0,  391.800,  117.540
2024,  '1',  96.670,  -18.500,  84.830,  -18.500,  1.02000,  0,  200.000,  0.00000,  0.15080,  0.00000,  0.00000,  1.00000,  1,  100.0,  166.670,  50.000
2057,  '1',  128.428,  -263.835,  335.520,  -87.840,  0.99000,  0,  864.000,  0.00000,  0.17700,  0.00000,  0.00000,  1.00000,  1,  100.0,  720.000,  216.000
2103,  '1',  80.320,  -29.720,  136.280,  -29.720,  1.00000,  0,  321.280,  0.00000,  0.33430,  0.00000,  0.00000,  1.00000,  1,  100.0,  267.730,  80.320
2104,  '1',  80.320,  -29.720,  136.280,  -29.720,  1.00000,  0,  321.280,  0.00000,  0.31470,  0.00000,  0.00000,  1.00000,  1,  100.0,  267.730,  80.320
2105,  '1',  80.320,  -29.720,  136.280,  -29.720,  1.00000,  0,  321.280,  0.00000,  0.14160,  0.00000,  0.00000,  1.00000,  1,  100.0,  267.730,  80.320
2115,  '1',  107.130,  -20.500,  94.020,  -20.500,  1.00000,  0,  221.660,  0.00000,  0.14250,  0.00000,  0.00000,  1.00000,  1,  100.0,  184.720,  55.410
2116,  '1',  107.130,  -20.500,  94.020,  -20.500,  1.00000,  0,  221.660,  0.00000,  0.18690,  0.00000,  0.00000,  1.00000,  1,  100.0,  184.720,  55.410
2117,  '1',  107.130,  -20.500,  94.020,  -20.500,  1.00000,  0,  221.660,  0.00000,  0.32540,  0.00000,  0.00000,  1.00000,  1,  100.0,  184.720,  55.410
2118,  '1',  107.130,  -20.500,  94.020,  -20.500,  1.00000,  0,  221.660,  0.00000,  0.10610,  0.00000,  0.00000,  1.00000,  1,  100.0,  184.720,  55.410
2119,  '1',  107.130,  -20.500,  94.020,  -20.500,  1.00000,  0,  221.660,  0.00000,  0.13600,  0.00000,  0.00000,  1.00000,  1,  100.0,  184.720,  55.410
2120,  '1',  107.130,  -20.500,  94.020,  -20.500,  1.01000,  0,  221.660,  0.00000,  0.20680,  0.00000,  0.00000,  1.00000,  1,  100.0,  184.720,  55.410
3045,  '1',  134.100,  0.357,  227.520,  -49.620,  1.04000,  0,  536.400,  0.00000,  0.14470,  0.00000,  0.00000,  1.00000,  1,  100.0,  447.000,  134.100
3106,  '1',  15.936,  -12.516,  62.477,  -2.690,  1.00000,  0,  65.880,  0.00000,  0.29220,  0.00000,  0.00000,  1.00000,  1,  100.0,  162.800,  0.000
4026,  '1',  123.000,  48.122,  191.060,  -50.020,  1.03000,  0,  492.000,  0.00000,  0.32770,  0.00000,  0.00000,  1.00000,  1,  100.0,  410.000,  123.000
4030,  '1',  211.199,  79.018,  290.040,  -75.930,  1.01000,  0,  746.880,  0.00000,  0.27970,  0.00000,  0.00000,  1.00000,  1,  100.0,  622.400,  186.720
4058,  '1',  83.520,  19.499,  73.300,  -15.980,  1.03000,  0,  172.800,  0.00000,  0.13700,  0.00000,  0.00000,  1.00000,  1,  100.0,  144.000,  43.200
4059,  '1',  83.520,  21.355,  73.300,  -15.980,  1.03000,  0,  172.800,  0.00000,  0.15140,  0.00000,  0.00000,  1.00000,  1,  100.0,  144.000,  43.200
4060,  '1',  83.520,  14.195,  73.300,  -15.980,  1.03000,  0,  172.800,  0.00000,  0.13940,  0.00000,  0.00000,  1.00000,  1,  100.0,  144.000,  43.200
4061,  '1',  99.950,  19.963,  87.720,  -19.130,  1.03000,  0,  206.800,  0.00000,  0.21560,  0.00000,  0.00000,  1.00000,  1,  100.0,  172.330,  51.700
4062,  '1',  99.950,  15.249,  87.720,  -19.130,  1.03000,  0,  206.800,  0.00000,  0.25930,  0.00000,  0.00000,  1.00000,  1,  100.0,  172.330,  51.700
4063,  '1',  99.950,  20.949,  87.720,  -19.130,  1.03000,  0,  206.800,  0.00000,  0.14410,  0.00000,  0.00000,  1.00000,  1,  100.0,  172.330,  51.700
4082,  '1',  175.250,  25.978,  123.890,  -27.020,  1.04000,  0,  292.080,  0.00000,  0.13810,  0.00000,  0.00000,  1.00000,  1,  100.0,  243.400,  73.020
4083,  '1',  175.250,  27.387,  123.890,  -27.020,  1.04000,  0,  292.080,  0.00000,  0.15700,  0.00000,  0.00000,  1.00000,  1,  100.0,  243.400,  73.020
4084,  '1',  175.250,  46.638,  123.890,  -27.020,  1.04000,  0,  292.080,  0.00000,  0.19110,  0.00000,  0.00000,  1.00000,  1,  100.0,  243.400,  73.020
4085,  '1',  253.440,  53.495,  179.170,  -39.070,  1.04000,  0,  422.400,  0.00000,  0.31920,  0.00000,  0.00000,  1.00000,  1,  100.0,  352.000,  105.600
4115,  '1',  39.540,  23.803,  67.090,  -14.630,  1.04000,  0,  158.160,  0.00000,  0.11310,  0.00000,  0.00000,  1.00000,  1,  100.0,  131.800,  39.540
4116,  '1',  39.540,  22.238,  67.090,  -14.630,  1.04000,  0,  158.160,  0.00000,  0.15150,  0.00000,  0.00000,  1.00000,  1,  100.0,  131.800,  39.540
4160,  '1',  114.710,  50.342,  100.660,  -21.950,  1.03000,  0,  237.320,  0.00000,  0.18820,  0.00000,  0.00000,  1.00000,  1,  100.0,  197.770,  59.330
4161,  '1',  114.710,  22.978,  100.660,  -21.950,  1.03000,  0,  237.320,  0.00000,  0.12390,  0.00000,  0.00000,  1.00000,  1,  100.0,  197.770,  59.330
4162,  '1',  114.710,  20.768,  100.660,  -21.950,  1.03000,  0,  237.320,  0.00000,  0.17220,  0.00000,  0.00000,  1.00000,  1,  100.0,  197.770,  59.330
4192,  '1',  896.490,  57.925,  688.320,  -150.120,  1.02000,  0,  1622.76,  0.00000,  0.14340,  0.00000,  0.00000,  1.00000,  1,  100.0,  1352.31,  405.690
5037,  '1',  308.470,  -34.240,  157.010,  -34.240,  1.02000,  0,  370.160,  0.00000,  0.29910,  0.00000,  0.00000,  1.00000,  1,  100.0,  308.470,  92.540
5038,  '1',  308.470,  -34.240,  157.010,  -34.240,  1.02000,  0,  370.160,  0.00000,  0.12330,  0.00000,  0.00000,  1.00000,  1,  100.0,  308.470,  92.540
5039,  '1',  308.470,  -34.240,  157.010,  -34.240,  1.02000,  0,  370.160,  0.00000,  0.21470,  0.00000,  0.00000,  1.00000,  1,  100.0,  308.470,  92.540
5040,  '1',  308.470,  -33.462,  157.010,  -34.240,  1.02000,  0,  370.160,  0.00000,  0.19240,  0.00000,  0.00000,  1.00000,  1,  100.0,  308.470,  92.540
5041,  '1',  308.470,  -34.240,  157.010,  -34.240,  1.02000,  0,  370.160,  0.00000,  0.11590,  0.00000,  0.00000,  1.00000,  1,  100.0,  308.470,  92.540
5042,  '1',  308.470,  -34.240,  157.010,  -34.240,  1.02000,  0,  370.160,  0.00000,  0.19130,  0.00000,  0.00000,  1.00000,  1,  100.0,  308.470,  92.540
5057,  '1',  272.950,  -35.230,  161.530,  -35.230,  1.00000,  0,  380.820,  0.00000,  0.19130,  0.00000,  0.00000,  1.00000,  1,  100.0,  317.350,  95.200
5058,  '1',  272.920,  -35.230,  161.530,  -35.230,  1.00000,  0,  380.820,  0.00000,  0.29820,  0.00000,  0.00000,  1.00000,  1,  100.0,  317.350,  95.200
5067,  '1',  376.910,  -1.384,  223.080,  -48.650,  1.03000,  0,  525.920,  0.00000,  0.32610,  0.00000,  0.00000,  1.00000,  1,  100.0,  438.270,  131.480
5068,  '1',  376.910,  -2.611,  223.080,  -48.650,  1.03000,  0,  525.920,  0.00000,  0.11690,  0.00000,  0.00000,  1.00000,  1,  100.0,  438.270,  131.480
5069,  '1',  376.910,  -2.775,  223.080,  -48.650,  1.03000,  0,  525.920,  0.00000,  0.10560,  0.00000,  0.00000,  1.00000,  1,  100.0,  438.270,  131.480
5166,  '1',  73.370,  22.878,  64.390,  -14.040,  1.04000,  0,  151.800,  0.00000,  0.13910,  0.00000,  0.00000,  1.00000,  1,  100.0,  126.500,  37.950
5206,  '1',  179.040,  -27.600,  126.570,  -27.600,  1.01000,  0,  298.400,  0.00000,  0.11980,  0.00000,  0.00000,  1.00000,  1,  100.0,  248.670,  74.600
5207,  '1',  179.040,  -27.600,  126.570,  -27.600,  1.01000,  0,  298.400,  0.00000,  0.18090,  0.00000,  0.00000,  1.00000,  1,  100.0,  248.670,  74.600
5208,  '1',  179.040,  -27.600,  126.570,  -27.600,  1.01000,  0,  298.400,  0.00000,  0.10560,  0.00000,  0.00000,  1.00000,  1,  100.0,  248.670,  74.600
5262,  '1',  1215.000,  -99.630,  447.120,  -99.630,  1.01000,  0,  1458.00,  0.00000,  0.26310,  0.00000,  0.00000,  1.00000,  1,  100.0,  1215.00,  364.500
5263,  '1',  1215.000,  -99.630,  447.120,  -99.630,  1.01000,  0,  1458.00,  0.00000,  0.16260,  0.00000,  0.00000,  1.00000,  1,  100.0,  1215.00,  364.500
5281,  '1',  155.280,  -29.720,  136.280,  -29.720,  1.00000,  0,  321.280,  0.00000,  0.10660,  0.00000,  0.00000,  1.00000,  1,  100.0,  267.730,  80.320
5282,  '1',  155.280,  -29.720,  136.280,  -29.720,  1.00000,  0,  321.280,  0.00000,  0.23940,  0.00000,  0.00000,  1.00000,  1,  100.0,  267.730,  80.320
5283,  '1',  155.280,  -29.720,  136.280,  -29.720,  1.00000,  0,  321.280,  0.00000,  0.10650,  0.00000,  0.00000,  1.00000,  1,  100.0,  267.730,  80.320
5298,  '1',  34.500,  58.530,  58.530,  -12.760,  1.04000,  0,  138.000,  0.00000,  0.13260,  0.00000,  0.00000,  1.00000,  1,  100.0,  115.000,  34.500
5299,  '1',  34.500,  33.644,  58.530,  -12.760,  1.04000,  0,  138.000,  0.00000,  0.32280,  0.00000,  0.00000,  1.00000,  1,  100.0,  115.000,  34.500
5300,  '1',  34.500,  40.593,  58.530,  -12.760,  1.04000,  0,  138.000,  0.00000,  0.21910,  0.00000,  0.00000,  1.00000,  1,  100.0,  115.000,  34.500
5302,  '1',  268.980,  44.266,  236.050,  -51.480,  1.04000,  0,  556.500,  0.00000,  0.13300,  0.00000,  0.00000,  1.00000,  1,  100.0,  463.750,  139.130
5303,  '1',  268.980,  58.491,  236.050,  -51.480,  1.04000,  0,  556.500,  0.00000,  0.17920,  0.00000,  0.00000,  1.00000,  1,  100.0,  463.750,  139.130
5319,  '1',  152.420,  -29.170,  133.770,  -29.170,  1.01000,  0,  315.360,  0.00000,  0.25070,  0.00000,  0.00000,  1.00000,  1,  100.0,  262.800,  78.840
5320,  '1',  152.420,  -29.170,  133.770,  -29.170,  1.01000,  0,  315.360,  0.00000,  0.28140,  0.00000,  0.00000,  1.00000,  1,  100.0,  262.800,  78.840
5321,  '1',  152.420,  -29.170,  133.770,  -29.170,  1.01000,  0,  315.360,  0.00000,  0.12810,  0.00000,  0.00000,  1.00000,  1,  100.0,  262.800,  78.840
5324,  '1',  244.300,  45.048,  144.590,  -31.530,  1.04000,  0,  340.880,  0.00000,  0.21670,  0.00000,  0.00000,  1.00000,  1,  100.0,  284.070,  85.220
5325,  '1',  244.300,  46.818,  144.590,  -31.530,  1.04000,  0,  340.880,  0.00000,  0.15030,  0.00000,  0.00000,  1.00000,  1,  100.0,  284.070,  85.220
5326,  '1',  244.300,  124.282,  144.590,  -31.530,  1.04000,  0,  340.880,  0.00000,  0.18810,  0.00000,  0.00000,  1.00000,  1,  100.0,  284.070,  85.220
5360,  '1',  224.601,  -119.502,  469.730,  -122.980,  1.01000,  0,  1209.60,  0.00000,  0.25510,  0.00000,  0.00000,  1.00000,  1,  100.0,  1008.00,  302.400
5364,  '1',  153.600,  -23.680,  108.590,  -23.680,  1.00000,  0,  256.000,  0.00000,  0.13030,  0.00000,  0.00000,  1.00000,  1,  100.0,  213.330,  64.000
5365,  '1',  153.600,  -23.680,  108.590,  -23.680,  1.00000,  0,  256.000,  0.00000,  0.11650,  0.00000,  0.00000,  1.00000,  1,  100.0,  213.330,  64.000
5366,  '1',  153.600,  -23.680,  108.590,  -23.680,  1.00000,  0,  256.000,  0.00000,  0.15490,  0.00000,  0.00000,  1.00000,  1,  100.0,  213.330,  64.000
5367,  '1',  153.600,  -23.680,  108.590,  -23.680,  1.00000,  0,  256.000,  0.00000,  0.10020,  0.00000,  0.00000,  1.00000,  1,  100.0,  213.330,  64.000
5368,  '1',  153.600,  -23.680,  108.590,  -23.680,  1.00000,  0,  256.000,  0.00000,  0.36180,  0.00000,  0.00000,  1.00000,  1,  100.0,  213.330,  64.000
5369,  '1',  153.600,  -23.680,  108.590,  -23.680,  1.00000,  0,  256.000,  0.00000,  0.24440,  0.00000,  0.00000,  1.00000,  1,  100.0,  213.330,  64.000
5382,  '1',  150.480,  78.826,  106.380,  -23.200,  1.04000,  0,  250.800,  0.00000,  0.24770,  0.00000,  0.00000,  1.00000,  1,  100.0,  209.000,  62.700
5383,  '1',  150.480,  69.400,  106.380,  -23.200,  1.04000,  0,  250.800,  0.00000,  0.39820,  0.00000,  0.00000,  1.00000,  1,  100.0,  209.000,  62.700
5415,  '1',  70.760,  -13.540,  62.100,  -13.540,  1.00000,  0,  146.400,  0.00000,  0.14030,  0.00000,  0.00000,  1.00000,  1,  100.0,  122.000,  36.600
5416,  '1',  70.760,  -13.540,  62.100,  -13.540,  1.00000,  0,  146.400,  0.00000,  0.26480,  0.00000,  0.00000,  1.00000,  1,  100.0,  122.000,  36.600
5417,  '1',  70.760,  -13.540,  62.100,  -13.540,  1.00000,  0,  146.400,  0.00000,  0.16960,  0.00000,  0.00000,  1.00000,  1,  100.0,  122.000,  36.600
5418,  '1',  68.900,  -13.190,  60.470,  -13.190,  1.00000,  0,  142.560,  0.00000,  0.34000,  0.00000,  0.00000,  1.00000,  1,  100.0,  118.800,  35.640
5419,  '1',  68.900,  -13.190,  60.470,  -13.190,  1.00000,  0,  142.560,  0.00000,  0.16420,  0.00000,  0.00000,  1.00000,  1,  100.0,  118.800,  35.640
5444,  '1',  1090.500,  -223.840,  1026.440,  -223.840,  1.01000,  0,  2419.92,  0.00000,  0.34260,  0.00000,  0.00000,  1.00000,  1,  100.0,  2016.60,  604.980
6006,  '1',  153.360,  16.373,  108.420,  -23.640,  1.04000,  0,  255.600,  0.00000,  0.18770,  0.00000,  0.00000,  1.00000,  1,  100.0,  213.000,  63.900
6007,  '1',  426.000,  28.211,  216.830,  -47.290,  1.04000,  0,  511.200,  0.00000,  0.13420,  0.00000,  0.00000,  1.00000,  1,  100.0,  426.000,  127.800
6008,  '1',  115.030,  14.822,  100.950,  -22.010,  1.04000,  0,  238.000,  0.00000,  0.20160,  0.00000,  0.00000,  1.00000,  1,  100.0,  198.330,  59.500
6009,  '1',  115.030,  9.143,  100.950,  -22.010,  1.04000,  0,  238.000,  0.00000,  0.18430,  0.00000,  0.00000,  1.00000,  1,  100.0,  198.330,  59.500
6010,  '1',  115.030,  11.970,  100.950,  -22.010,  1.04000,  0,  238.000,  0.00000,  0.15620,  0.00000,  0.00000,  1.00000,  1,  100.0,  198.330,  59.500
6042,  '1',  39.818,  9.296,  122.908,  -5.290,  1.04000,  0,  129.600,  0.00000,  0.18770,  0.00000,  0.00000,  1.00000,  1,  100.0,  320.200,  0.000
6069,  '1',  105.190,  -1.652,  92.320,  -20.130,  1.03000,  0,  217.640,  0.00000,  0.22480,  0.00000,  0.00000,  1.00000,  1,  100.0,  181.370,  54.410
6070,  '1',  105.190,  -0.158,  92.320,  -20.130,  1.03000,  0,  217.640,  0.00000,  0.24660,  0.00000,  0.00000,  1.00000,  1,  100.0,  181.370,  54.410
6071,  '1',  105.190,  -1.289,  92.320,  -20.130,  1.03000,  0,  217.640,  0.00000,  0.15280,  0.00000,  0.00000,  1.00000,  1,  100.0,  181.370,  54.410
6072,  '1',  105.190,  -0.017,  92.320,  -20.130,  1.03000,  0,  217.640,  0.00000,  0.19250,  0.00000,  0.00000,  1.00000,  1,  100.0,  181.370,  54.410
6073,  '1',  105.190,  -1.072,  92.320,  -20.130,  1.03000,  0,  217.640,  0.00000,  0.14260,  0.00000,  0.00000,  1.00000,  1,  100.0,  181.370,  54.410
6074,  '1',  105.190,  -1.753,  92.320,  -20.130,  1.03000,  0,  217.640,  0.00000,  0.11150,  0.00000,  0.00000,  1.00000,  1,  100.0,  181.370,  54.410
6078,  '1',  169.000,  -68.730,  262.510,  -68.730,  1.00000,  0,  676.000,  0.00000,  0.28900,  0.00000,  0.00000,  1.00000,  1,  100.0,  563.330,  169.000
6079,  '1',  169.000,  -68.730,  262.510,  -68.730,  1.00000,  0,  676.000,  0.00000,  0.25330,  0.00000,  0.00000,  1.00000,  1,  100.0,  563.330,  169.000
6080,  '1',  169.000,  -68.730,  262.510,  -68.730,  1.00000,  0,  676.000,  0.00000,  0.32510,  0.00000,  0.00000,  1.00000,  1,  100.0,  563.330,  169.000
6106,  '1',  36.300,  61.590,  61.590,  -13.430,  1.04000,  0,  145.200,  0.00000,  0.12010,  0.00000,  0.00000,  1.00000,  1,  100.0,  121.000,  36.300
6110,  '1',  177.180,  36.897,  275.220,  -72.050,  1.04000,  0,  708.720,  0.00000,  0.16800,  0.00000,  0.00000,  1.00000,  1,  100.0,  590.600,  177.180
6111,  '1',  198.450,  37.494,  308.260,  -80.700,  1.04000,  0,  793.800,  0.00000,  0.21900,  0.00000,  0.00000,  1.00000,  1,  100.0,  661.500,  198.450
6145,  '1',  424.565,  11.947,  227.010,  -49.510,  1.03000,  0,  535.200,  0.00000,  0.14770,  0.00000,  0.00000,  1.00000,  1,  100.0,  446.000,  133.800
6146,  '1',  446.000,  13.216,  227.010,  -49.510,  1.03000,  0,  535.200,  0.00000,  0.11950,  0.00000,  0.00000,  1.00000,  1,  100.0,  446.000,  133.800
6147,  '1',  250.245,  4.831,  474.390,  -103.450,  1.03000,  0,  1118.40,  0.00000,  0.10440,  0.00000,  0.00000,  1.00000,  1,  100.0,  932.000,  279.600
6148,  '1',  216.600,  5.112,  367.500,  -80.140,  1.03000,  0,  866.400,  0.00000,  0.23830,  0.00000,  0.00000,  1.00000,  1,  100.0,  722.000,  216.600
6149,  '1',  216.600,  11.123,  367.500,  -80.140,  1.03000,  0,  866.400,  0.00000,  0.12770,  0.00000,  0.00000,  1.00000,  1,  100.0,  722.000,  216.600
6164,  '1',  169.240,  11.571,  119.640,  -26.090,  1.03000,  0,  282.060,  0.00000,  0.30070,  0.00000,  0.00000,  1.00000,  1,  100.0,  235.050,  70.520
6165,  '1',  169.240,  9.766,  119.640,  -26.090,  1.03000,  0,  282.060,  0.00000,  0.18390,  0.00000,  0.00000,  1.00000,  1,  100.0,  235.050,  70.520
6166,  '1',  169.240,  23.358,  119.640,  -26.090,  1.03000,  0,  282.060,  0.00000,  0.25100,  0.00000,  0.00000,  1.00000,  1,  100.0,  235.050,  70.520
6167,  '1',  169.240,  12.849,  119.640,  -26.090,  1.03000,  0,  282.060,  0.00000,  0.13970,  0.00000,  0.00000,  1.00000,  1,  100.0,  235.050,  70.520
6214,  '1',  68.680,  -1.554,  212.059,  -9.130,  1.04000,  0,  223.600,  0.00000,  0.21900,  0.00000,  0.00000,  1.00000,  1,  100.0,  552.300,  0.000
6215,  '1',  68.680,  -4.922,  212.059,  -9.130,  1.04000,  0,  223.600,  0.00000,  0.20110,  0.00000,  0.00000,  1.00000,  1,  100.0,  552.300,  0.000
6216,  '1',  68.680,  -2.385,  212.059,  -9.130,  1.04000,  0,  223.600,  0.00000,  0.37760,  0.00000,  0.00000,  1.00000,  1,  100.0,  552.300,  0.000
6243,  '1',  131.760,  39.063,  93.150,  -20.310,  1.04000,  0,  219.600,  0.00000,  0.28800,  0.00000,  0.00000,  1.00000,  1,  100.0,  183.000,  54.900
6244,  '1',  256.280,  47.471,  151.680,  -33.080,  1.04000,  0,  357.600,  0.00000,  0.12500,  0.00000,  0.00000,  1.00000,  1,  100.0,  298.000,  89.400
6245,  '1',  256.280,  55.056,  151.680,  -33.080,  1.04000,  0,  357.600,  0.00000,  0.24960,  0.00000,  0.00000,  1.00000,  1,  100.0,  298.000,  89.400
6246,  '1',  256.280,  104.666,  151.680,  -33.080,  1.04000,  0,  357.600,  0.00000,  0.16990,  0.00000,  0.00000,  1.00000,  1,  100.0,  298.000,  89.400
6247,  '1',  132.000,  85.879,  93.320,  -20.350,  1.04000,  0,  220.000,  0.00000,  0.11730,  0.00000,  0.00000,  1.00000,  1,  100.0,  183.330,  55.000
6248,  '1',  132.000,  43.336,  93.320,  -20.350,  1.04000,  0,  220.000,  0.00000,  0.27550,  0.00000,  0.00000,  1.00000,  1,  100.0,  183.330,  55.000
6249,  '1',  132.000,  29.548,  93.320,  -20.350,  1.04000,  0,  220.000,  0.00000,  0.17480,  0.00000,  0.00000,  1.00000,  1,  100.0,  183.330,  55.000
6257,  '1',  112.520,  -21.530,  98.750,  -21.530,  1.02000,  0,  232.800,  0.00000,  0.15520,  0.00000,  0.00000,  1.00000,  1,  100.0,  194.000,  58.200
6258,  '1',  112.520,  -21.530,  98.750,  -21.530,  1.02000,  0,  232.800,  0.00000,  0.26310,  0.00000,  0.00000,  1.00000,  1,  100.0,  194.000,  58.200
6260,  '1',  185.040,  -28.530,  130.810,  -28.530,  1.02000,  0,  308.400,  0.00000,  0.11970,  0.00000,  0.00000,  1.00000,  1,  100.0,  257.000,  77.100
6295,  '1',  148.490,  -22.890,  104.970,  -22.890,  1.02000,  0,  247.480,  0.00000,  0.21970,  0.00000,  0.00000,  1.00000,  1,  100.0,  206.230,  61.870
6296,  '1',  148.490,  -22.890,  104.970,  -22.890,  1.02000,  0,  247.480,  0.00000,  0.25670,  0.00000,  0.00000,  1.00000,  1,  100.0,  206.230,  61.870
6297,  '1',  148.500,  -22.890,  104.970,  -22.890,  1.02000,  0,  247.480,  0.00000,  0.14170,  0.00000,  0.00000,  1.00000,  1,  100.0,  206.230,  61.900
6302,  '1',  178.020,  -27.440,  125.850,  -27.440,  1.00000,  0,  296.700,  0.00000,  0.25960,  0.00000,  0.00000,  1.00000,  1,  100.0,  247.250,  74.180
6303,  '1',  178.020,  -27.440,  125.850,  -27.440,  1.00000,  0,  296.700,  0.00000,  0.27270,  0.00000,  0.00000,  1.00000,  1,  100.0,  247.250,  74.180
6304,  '1',  178.020,  -27.440,  125.850,  -27.440,  1.00000,  0,  296.700,  0.00000,  0.11710,  0.00000,  0.00000,  1.00000,  1,  100.0,  247.250,  74.180
6305,  '1',  178.020,  -27.440,  125.850,  -27.440,  1.00000,  0,  296.700,  0.00000,  0.12770,  0.00000,  0.00000,  1.00000,  1,  100.0,  247.250,  74.180
6349,  '1',  522.720,  247.938,  369.540,  -80.580,  1.04000,  0,  871.200,  0.00000,  0.16290,  0.00000,  0.00000,  1.00000,  1,  100.0,  726.000,  217.800
7005,  '1',  117.360,  20.344,  82.970,  -18.090,  1.04000,  0,  195.600,  0.00000,  0.13000,  0.00000,  0.00000,  1.00000,  1,  100.0,  163.000,  48.900
7006,  '1',  117.360,  36.305,  82.970,  -18.090,  1.04000,  0,  195.600,  0.00000,  0.19150,  0.00000,  0.00000,  1.00000,  1,  100.0,  163.000,  48.900
7007,  '1',  117.360,  23.645,  82.970,  -18.090,  1.04000,  0,  195.600,  0.00000,  0.34300,  0.00000,  0.00000,  1.00000,  1,  100.0,  163.000,  48.900
7008,  '1',  117.360,  22.046,  82.970,  -18.090,  1.04000,  0,  195.600,  0.00000,  0.21570,  0.00000,  0.00000,  1.00000,  1,  100.0,  163.000,  48.900
7009,  '1',  117.360,  19.925,  82.970,  -18.090,  1.04000,  0,  195.600,  0.00000,  0.13060,  0.00000,  0.00000,  1.00000,  1,  100.0,  163.000,  48.900
7015,  '1',  0.000,  0.000,  2.040,  -0.440,  1.04000,  0,  4.800,  0.00000,  0.22520,  0.00000,  0.00000,  1.00000,  0,  100.0,  4.000,  1.200
7045,  '1',  109.300,  95.920,  95.920,  -20.920,  1.03000,  0,  226.140,  0.00000,  0.12400,  0.00000,  0.00000,  1.00000,  1,  100.0,  188.450,  56.530
7046,  '1',  109.300,  95.920,  95.920,  -20.920,  1.03000,  0,  226.140,  0.00000,  0.10650,  0.00000,  0.00000,  1.00000,  1,  100.0,  188.450,  56.530
7061,  '1',  34.470,  48.672,  58.480,  -12.750,  1.00000,  0,  137.880,  0.00000,  0.12410,  0.00000,  0.00000,  1.00000,  1,  100.0,  114.900,  34.470
7062,  '1',  34.470,  53.210,  58.480,  -12.750,  1.00000,  0,  137.880,  0.00000,  0.19500,  0.00000,  0.00000,  1.00000,  1,  100.0,  114.900,  34.470
7063,  '1',  34.470,  49.182,  58.480,  -12.750,  1.00000,  0,  137.880,  0.00000,  0.15790,  0.00000,  0.00000,  1.00000,  1,  100.0,  114.900,  34.470
7064,  '1',  34.470,  58.480,  58.480,  -12.750,  1.00000,  0,  137.880,  0.00000,  0.22800,  0.00000,  0.00000,  1.00000,  1,  100.0,  114.900,  34.470
7065,  '1',  34.470,  58.480,  58.480,  -12.750,  1.00000,  0,  137.880,  0.00000,  0.22800,  0.00000,  0.00000,  1.00000,  1,  100.0,  114.900,  34.470
7066,  '1',  34.470,  54.444,  58.480,  -12.750,  1.00000,  0,  137.880,  0.00000,  0.34800,  0.00000,  0.00000,  1.00000,  1,  100.0,  114.900,  34.470
7079,  '1',  196.640,  17.044,  116.380,  -25.380,  1.04000,  0,  274.380,  0.00000,  0.13630,  0.00000,  0.00000,  1.00000,  1,  100.0,  228.650,  68.590
7080,  '1',  196.640,  13.610,  116.380,  -25.380,  1.04000,  0,  274.380,  0.00000,  0.17160,  0.00000,  0.00000,  1.00000,  1,  100.0,  228.650,  68.590
7081,  '1',  196.640,  14.195,  116.380,  -25.380,  1.04000,  0,  274.380,  0.00000,  0.24350,  0.00000,  0.00000,  1.00000,  1,  100.0,  228.650,  68.590
7082,  '1',  196.640,  16.305,  116.380,  -25.380,  1.04000,  0,  274.380,  0.00000,  0.26430,  0.00000,  0.00000,  1.00000,  1,  100.0,  228.650,  68.590
7098,  '1',  2733.421,  1735.235,  498.380,  -111.050,  1.00000,  0,  3600.00,  0.00000,  0.28190,  0.00000,  0.00000,  1.00000,  1,  100.0,  1354.30,  406.290
7099,  '1',  1354.300,  498.380,  498.380,  -111.050,  1.00000,  0,  1625.16,  0.00000,  0.27430,  0.00000,  0.00000,  1.00000,  1,  100.0,  1354.30,  406.290
7107,  '1',  108.000,  47.562,  76.350,  -16.650,  1.04000,  0,  180.000,  0.00000,  0.29250,  0.00000,  0.00000,  1.00000,  1,  100.0,  150.000,  45.000
7108,  '1',  0.000,  18.528,  25.960,  -5.660,  1.04000,  0,  61.200,  0.00000,  0.13470,  0.00000,  0.00000,  1.00000,  0,  100.0,  51.000,  15.300
7109,  '1',  0.000,  22.506,  25.960,  -5.660,  1.04000,  0,  61.200,  0.00000,  0.17780,  0.00000,  0.00000,  1.00000,  0,  100.0,  51.000,  15.300
7110,  '1',  141.120,  26.429,  99.760,  -21.760,  1.04000,  0,  235.200,  0.00000,  0.13730,  0.00000,  0.00000,  1.00000,  1,  100.0,  196.000,  58.800
7111,  '1',  141.120,  25.729,  99.760,  -21.760,  1.04000,  0,  235.200,  0.00000,  0.19180,  0.00000,  0.00000,  1.00000,  1,  100.0,  196.000,  58.800
7112,  '1',  141.120,  41.125,  99.760,  -21.760,  1.04000,  0,  235.200,  0.00000,  0.17280,  0.00000,  0.00000,  1.00000,  1,  100.0,  196.000,  58.800
7113,  '1',  141.120,  21.888,  99.760,  -21.760,  1.04000,  0,  235.200,  0.00000,  0.16060,  0.00000,  0.00000,  1.00000,  1,  100.0,  196.000,  58.800
7114,  '1',  141.120,  43.604,  99.760,  -21.760,  1.04000,  0,  235.200,  0.00000,  0.20370,  0.00000,  0.00000,  1.00000,  1,  100.0,  196.000,  58.800
7115,  '1',  141.120,  43.862,  99.760,  -21.760,  1.04000,  0,  235.200,  0.00000,  0.17540,  0.00000,  0.00000,  1.00000,  1,  100.0,  196.000,  58.800
7121,  '1',  0.000,  0.000,  1.880,  -0.410,  1.04000,  0,  4.440,  0.00000,  0.10630,  0.00000,  0.00000,  1.00000,  0,  100.0,  3.700,  1.110
7122,  '1',  0.000,  0.000,  2.190,  -0.480,  1.04000,  0,  5.160,  0.00000,  0.14330,  0.00000,  0.00000,  1.00000,  0,  100.0,  4.300,  1.290
7133,  '1',  0.000,  -1.810,  8.300,  -1.810,  1.00000,  0,  19.560,  0.00000,  0.13400,  0.00000,  0.00000,  1.00000,  0,  100.0,  16.300,  4.890
7134,  '1',  148.720,  -22.930,  105.130,  -22.930,  1.00000,  0,  247.860,  0.00000,  0.12450,  0.00000,  0.00000,  1.00000,  1,  100.0,  206.550,  61.970
7135,  '1',  148.720,  -22.930,  105.130,  -22.930,  1.00000,  0,  247.860,  0.00000,  0.10080,  0.00000,  0.00000,  1.00000,  1,  100.0,  206.550,  61.970
7136,  '1',  148.720,  -22.930,  105.130,  -22.930,  1.00000,  0,  247.860,  0.00000,  0.12110,  0.00000,  0.00000,  1.00000,  1,  100.0,  206.550,  61.970
7137,  '1',  148.720,  -22.930,  105.130,  -22.930,  1.00000,  0,  247.860,  0.00000,  0.35250,  0.00000,  0.00000,  1.00000,  1,  100.0,  206.550,  61.970
7138,  '1',  380.700,  -42.260,  193.780,  -42.260,  1.00000,  0,  456.840,  0.00000,  0.12060,  0.00000,  0.00000,  1.00000,  1,  100.0,  380.700,  114.210
7139,  '1',  0.000,  -6.550,  30.030,  -6.550,  1.00000,  0,  70.800,  0.00000,  0.12350,  0.00000,  0.00000,  1.00000,  0,  100.0,  59.000,  17.700
7140,  '1',  0.000,  -6.550,  30.030,  -6.550,  1.00000,  0,  70.800,  0.00000,  0.29730,  0.00000,  0.00000,  1.00000,  0,  100.0,  59.000,  17.700
7141,  '1',  0.000,  -6.550,  30.030,  -6.550,  1.00000,  0,  70.800,  0.00000,  0.23590,  0.00000,  0.00000,  1.00000,  0,  100.0,  59.000,  17.700
7142,  '1',  0.000,  -6.550,  30.030,  -6.550,  1.00000,  0,  70.800,  0.00000,  0.23560,  0.00000,  0.00000,  1.00000,  0,  100.0,  59.000,  17.700
7146,  '1',  0.000,  -1.130,  5.190,  -1.130,  1.01000,  0,  12.240,  0.00000,  0.16660,  0.00000,  0.00000,  1.00000,  0,  100.0,  10.200,  3.060
7162,  '1',  64.150,  51.481,  56.300,  -12.280,  1.04000,  0,  132.720,  0.00000,  0.21300,  0.00000,  0.00000,  1.00000,  1,  100.0,  110.600,  33.180
7163,  '1',  64.150,  33.123,  56.300,  -12.280,  1.04000,  0,  132.720,  0.00000,  0.10860,  0.00000,  0.00000,  1.00000,  1,  100.0,  110.600,  33.180
7164,  '1',  64.150,  45.997,  56.300,  -12.280,  1.04000,  0,  132.720,  0.00000,  0.20360,  0.00000,  0.00000,  1.00000,  1,  100.0,  110.600,  33.180
7165,  '1',  64.150,  51.023,  56.300,  -12.280,  1.04000,  0,  132.720,  0.00000,  0.39190,  0.00000,  0.00000,  1.00000,  1,  100.0,  110.600,  33.180
7166,  '1',  64.150,  28.281,  56.300,  -12.280,  1.04000,  0,  132.720,  0.00000,  0.12630,  0.00000,  0.00000,  1.00000,  1,  100.0,  110.600,  33.180
7167,  '1',  64.160,  23.371,  56.300,  -12.280,  1.04000,  0,  132.720,  0.00000,  0.10500,  0.00000,  0.00000,  1.00000,  1,  100.0,  110.600,  33.200
7168,  '1',  0.000,  44.650,  44.650,  -9.740,  1.04000,  0,  105.260,  0.00000,  0.20410,  0.00000,  0.00000,  1.00000,  0,  100.0,  87.720,  26.320
7169,  '1',  0.000,  44.650,  44.650,  -9.740,  1.04000,  0,  105.260,  0.00000,  0.14810,  0.00000,  0.00000,  1.00000,  0,  100.0,  87.720,  26.300
7170,  '1',  350.870,  69.763,  178.590,  -38.950,  1.04000,  0,  421.040,  0.00000,  0.12310,  0.00000,  0.00000,  1.00000,  1,  100.0,  350.870,  105.260
7189,  '1',  0.000,  3.510,  3.510,  -0.770,  1.03000,  0,  8.280,  0.00000,  0.14070,  0.00000,  0.00000,  1.00000,  0,  100.0,  6.900,  2.070
7190,  '1',  0.000,  12.132,  24.430,  -5.330,  1.03000,  0,  57.600,  0.00000,  0.14060,  0.00000,  0.00000,  1.00000,  0,  100.0,  48.000,  14.400
7191,  '1',  0.000,  0.000,  2.550,  -0.550,  1.03000,  0,  6.000,  0.00000,  0.14200,  0.00000,  0.00000,  1.00000,  0,  100.0,  5.000,  1.500
7192,  '1',  0.000,  17.205,  17.810,  -3.880,  1.03000,  0,  42.000,  0.00000,  0.16330,  0.00000,  0.00000,  1.00000,  0,  100.0,  35.000,  10.500
7193,  '1',  0.000,  3.820,  3.820,  -0.830,  1.03000,  0,  9.000,  0.00000,  0.21170,  0.00000,  0.00000,  1.00000,  0,  100.0,  7.500,  2.250
7194,  '1',  198.620,  41.296,  117.550,  -25.640,  1.03000,  0,  277.140,  0.00000,  0.16070,  0.00000,  0.00000,  1.00000,  1,  100.0,  230.950,  69.280
7195,  '1',  198.620,  35.434,  117.550,  -25.640,  1.03000,  0,  277.140,  0.00000,  0.11620,  0.00000,  0.00000,  1.00000,  1,  100.0,  230.950,  69.280
7196,  '1',  198.620,  64.970,  117.550,  -25.640,  1.03000,  0,  277.140,  0.00000,  0.13190,  0.00000,  0.00000,  1.00000,  1,  100.0,  230.950,  69.280
7197,  '1',  198.620,  101.159,  117.550,  -25.640,  1.03000,  0,  277.140,  0.00000,  0.20530,  0.00000,  0.00000,  1.00000,  1,  100.0,  230.950,  69.280
7207,  '1',  0.000,  0.000,  2.040,  -0.440,  1.04000,  0,  4.800,  0.00000,  0.12960,  0.00000,  0.00000,  1.00000,  0,  100.0,  4.000,  1.200
7208,  '1',  229.500,  33.090,  389.390,  -84.920,  1.04000,  0,  918.000,  0.00000,  0.32860,  0.00000,  0.00000,  1.00000,  1,  100.0,  765.000,  229.500
...
 0 /End of Generator data, Begin Branch data
1048,  1049,  '99',  0.00251,  0.33336,  0.00000,  0.00,  0.00,  0.00,  0.00000,  0.000,  0.00000,  0.00000,  0.00000,  0.00000,  1
1048,  1053,  '99',  0.00254,  0.24921,  0.00000,  0.00,  0.00,  0.00,  0.00000,  0.000,  0.00000,  0.00000,  0.00000,  0.00000,  1
1048,  1072,  '99',  0.77310,  4.13374,  0.00000,  0.00,  0.00,  0.00,  0.00000,  0.000,  0.00000,  0.00000,  0.00000,  0.00000,  1
1048,  1075,  '99',  0.78245,  4.83295,  0.00000,  0.00,  0.00,  0.00,  0.00000,  0.000,  0.00000,  0.00000,  0.00000,  0.00000,  1
1048,  1076,  '99',  0.36626,  2.39656,  0.00000,  0.00,  0.00,  0.00,  0.00000,  0.000,  0.00000,  0.00000,  0.00000,  0.00000,  1
1048,  1081,  '99',  0.16595,  1.02046,  0.00000,  0.00,  0.00,  0.00,  0.00000,  0.000,  0.00000,  0.00000,  0.00000,  0.00000,  1
1049,  1053,  '99',  -0.00770,  0.44603,  0.00000,  0.00,  0.00,  0.00,  0.00000,  0.000,  0.00000,  0.00000,  0.00000,  0.00000,  1
1049,  1076,  '99',  0.53748,  4.30622,  0.00000,  0.00,  0.00,  0.00,  0.00000,  0.000,  0.00000,  0.00000,  0.00000,  0.00000,  1
1049,  1081,  '99',  0.24674,  1.83408,  0.00000,  0.00,  0.00,  0.00,  0.00000,  0.000,  0.00000,  0.00000,  0.00000,  0.00000,  1
1053,  1076,  '99',  0.41045,  3.21810,  0.00000,  0.00,  0.00,  0.00,  0.00000,  0.000,  0.00000,  0.00000,  0.00000,  0.00000,  1
1053,  1081,  '99',  0.00296,  0.02936,  0.00000,  0.00,  0.00,  0.00,  0.00000,  0.000,  0.00000,  0.00000,  0.00000,  0.00000,  1
1072,  1073,  '99',  0.12853,  1.19351,  0.00000,  0.00,  0.00,  0.00,  0.00000,  0.000,  0.00000,  0.00000,  0.00000,  0.00000,  1
1072,  1074,  '99',  0.06154,  1.14376,  0.00000,  0.00,  0.00,  0.00,  0.00000,  0.000,  0.00000,  0.00000,  0.00000,  0.00000,  1
1072,  1075,  '99',  0.04124,  0.91549,  0.00000,  0.00,  0.00,  0.00,  0.00000,  0.000,  0.00000,  0.00000,  0.00000,  0.00000,  1
1072,  1076,  '99',  0.01641,  0.45351,  0.00000,  0.00,  0.00,  0.00,  0.00000,  0.000,  0.00000,  0.00000,  0.00000,  0.00000,  1
1072,  1077,  '99',  0.06732,  1.10641,  0.00000,  0.00,  0.00,  0.00,  0.00000,  0.000,  0.00000,  0.00000,  0.00000,  0.00000,  1
1072,  1081,  '99',  0.02390,  0.53564,  0.00000,  0.00,  0.00,  0.00,  0.00000,  0.000,  0.00000,  0.00000,  0.00000,  0.00000,  1
1072,  5263,  '99',  0.10960,  4.10524,  0.00000,  0.00,  0.00,  0.00,  0.00000,  0.000,  0.00000,  0.00000,  0.00000,  0.00000,  1
1073,  1074,  '99',  0.15984,  1.73938,  0.00000,  0.00,  0.00,  0.00,  0.00000,  0.000,  0.00000,  0.00000,  0.00000,  0.00000,  1
1073,  1075,  '99',  0.11572,  1.39271,  0.00000,  0.00,  0.00,  0.00,  0.00000,  0.000,  0.00000,  0.00000,  0.00000,  0.00000,  1
1073,  1076,  '99',  0.05120,  0.69013,  0.00000,  0.00,  0.00,  0.00,  0.00000,  0.000,  0.00000,  0.00000,  0.00000,  0.00000,  1
1073,  1077,  '99',  0.16649,  1.68214,  0.00000,  0.00,  0.00,  0.00,  0.00000,  0.000,  0.00000,  0.00000,  0.00000,  0.00000,  1
1073,  1081,  '99',  0.06735,  0.81486,  0.00000,  0.00,  0.00,  0.00,  0.00000,  0.000,  0.00000,  0.00000,  0.00000,  0.00000,  1
1074,  1075,  '99',  0.03916,  1.33290,  0.00000,  0.00,  0.00,  0.00,  0.00000,  0.000,  0.00000,  0.00000,  0.00000,  0.00000,  1
1074,  1076,  '99',  0.01355,  0.66019,  0.00000,  0.00,  0.00,  0.00,  0.00000,  0.000,  0.00000,  0.00000,  0.00000,  0.00000,  1
1074,  1077,  '99',  0.07276,  1.61127,  0.00000,  0.00,  0.00,  0.00,  0.00000,  0.000,  0.00000,  0.00000,  0.00000,  0.00000,  1
1074,  1081,  '99',  0.02258,  0.77985,  0.00000,  0.00,  0.00,  0.00,  0.00000,  0.000,  0.00000,  0.00000,  0.00000,  0.00000,  1
1075,  1076,  '99',  0.00623,  0.52827,  0.00000,  0.00,  0.00,  0.00,  0.00000,  0.000,  0.00000,  0.00000,  0.00000,  0.00000,  1
1075,  1077,  '99',  0.04695,  1.28960,  0.00000,  0.00,  0.00,  0.00,  0.00000,  0.000,  0.00000,  0.00000,  0.00000,  0.00000,  1
1075,  1081,  '99',  0.01261,  0.62407,  0.00000,  0.00,  0.00,  0.00,  0.00000,  0.000,  0.00000,  0.00000,  0.00000,  0.00000,  1
1075,  5263,  '99',  0.01105,  4.78095,  0.00000,  0.00,  0.00,  0.00,  0.00000,  0.000,  0.00000,  0.00000,  0.00000,  0.00000,  1
1076,  1077,  '99',  0.01759,  0.63878,  0.00000,  0.00,  0.00,  0.00,  0.00000,  0.000,  0.00000,  0.00000,  0.00000,  0.00000,  1
1076,  1081,  '99',  0.00351,  0.30908,  0.00000,  0.00,  0.00,  0.00,  0.00000,  0.000,  0.00000,  0.00000,  0.00000,  0.00000,  1
1076,  2057,  '99',  0.20632,  3.50922,  0.00000,  0.00,  0.00,  0.00,  0.00000,  0.000,  0.00000,  0.00000,  0.00000,  0.00000,  1
1076,  3045,  '99',  0.02681,  3.15490,  0.00000,  0.00,  0.00,  0.00,  0.00000,  0.000,  0.00000,  0.00000,  0.00000,  0.00000,  1
1076,  5262,  '99',  -0.01335,  3.31772,  0.00000,  0.00,  0.00,  0.00,  0.00000,  0.000,  0.00000,  0.00000,  0.00000,  0.00000,  1
1076,  5263,  '99',  -0.01549,  2.36743,  0.00000,  0.00,  0.00,  0.00,  0.00000,  0.000,  0.00000,  0.00000,  0.00000,  0.00000,  1
1077,  1081,  '99',  0.02714,  0.75451,  0.00000,  0.00,  0.00,  0.00,  0.00000,  0.000,  0.00000,  0.00000,  0.00000,  0.00000,  1
1081,  2057,  '99',  0.10228,  0.95806,  0.00000,  0.00,  0.00,  0.00,  0.00000,  0.000,  0.00000,  0.00000,  0.00000,  0.00000,  1
1081,  3045,  '99',  0.01556,  0.42380,  0.00000,  0.00,  0.00,  0.00,  0.00000,  0.000,  0.00000,  0.00000,  0.00000,  0.00000,  1
1081,  4026,  '99',  0.16111,  3.83892,  0.00000,  0.00,  0.00,  0.00,  0.00000,  0.000,  0.00000,  0.00000,  0.00000,  0.00000,  1
1081,  4115,  '99',  0.10549,  2.65837,  0.00000,  0.00,  0.00,  0.00,  0.00000,  0.000,  0.00000,  0.00000,  0.00000,  0.00000,  1
1081,  4116,  '99',  0.13840,  2.79600,  0.00000,  0.00,  0.00,  0.00,  0.00000,  0.000,  0.00000,  0.00000,  0.00000,  0.00000,  1
1081,  5057,  '99',  0.14235,  1.82879,  0.00000,  0.00,  0.00,  0.00,  0.00000,  0.000,  0.00000,  0.00000,  0.00000,  0.00000,  1
1081,  5058,  '99',  0.20385,  2.66328,  0.00000,  0.00,  0.00,  0.00,  0.00000,  0.000,  0.00000,  0.00000,  0.00000,  0.00000,  1
1081,  5207,  '99',  0.38758,  4.15961,  0.00000,  0.00,  0.00,  0.00,  0.00000,  0.000,  0.00000,  0.00000,  0.00000,  0.00000,  1
1081,  5262,  '99',  0.07664,  1.29129,  0.00000,  0.00,  0.00,  0.00,  0.00000,  0.000,  0.00000,  0.00000,  0.00000,  0.00000,  1
1081,  5263,  '99',  0.05237,  0.92158,  0.00000,  0.00,  0.00,  0.00,  0.00000,  0.000,  0.00000,  0.00000,  0.00000,  0.00000,  1
1081,  5415,  '99',  0.19830,  3.73875,  0.00000,  0.00,  0.00,  0.00,  0.00000,  0.000,  0.00000,  0.00000,  0.00000,  0.00000,  1
1081,  5416,  '99',  0.18940,  3.78143,  0.00000,  0.00,  0.00,  0.00,  0.00000,  0.000,  0.00000,  0.00000,  0.00000,  0.00000,  1
1081,  5417,  '99',  0.15994,  3.33338,  0.00000,  0.00,  0.00,  0.00,  0.00000,  0.000,  0.00000,  0.00000,  0.00000,  0.00000,  1
1081,  5418,  '99',  0.19559,  3.22379,  0.00000,  0.00,  0.00,  0.00,  0.00000,  0.000,  0.00000,  0.00000,  0.00000,  0.00000,  1
1081,  5419,  '99',  0.10879,  1.89016,  0.00000,  0.00,  0.00,  0.00,  0.00000,  0.000,  0.00000,  0.00000,  0.00000,  0.00000,  1
1081,  5444,  '99',  0.29317,  2.20075,  0.00000,  0.00,  0.00,  0.00,  0.00000,  0.000,  0.00000,  0.00000,  0.00000,  0.00000,  1
1081,  6215,  '99',  0.24112,  3.35951,  0.00000,  0.00,  0.00,  0.00,  0.00000,  0.000,  0.00000,  0.00000,  0.00000,  0.00000,  1
1081,  6349,  '99',  0.41501,  2.59906,  0.00000,  0.00,  0.00,  0.00,  0.00000,  0.000,  0.00000,  0.00000,  0.00000,  0.00000,  1
2004,  2005,  '99',  -0.00116,  0.09462,  0.00000,  0.00,  0.00,  0.00,  0.00000,  0.000,  0.00000,  0.00000,  0.00000,  0.00000,  1
2004,  2006,  '99',  -0.00268,  0.14787,  0.00000,  0.00,  0.00,  0.00,  0.00000,  0.000,  0.00000,  0.00000,  0.00000,  0.00000,  1
2004,  2024,  '99',  0.00885,  0.54062,  0.00000,  0.00,  0.00,  0.00,  0.00000,  0.000,  0.00000,  0.00000,  0.00000,  0.00000,  1
2004,  2103,  '99',  0.00066,  0.14611,  0.00000,  0.00,  0.00,  0.00,  0.00000,  0.000,  0.00000,  0.00000,  0.00000,  0.00000,  1
2004,  2104,  '99',  0.00053,  0.19139,  0.00000,  0.00,  0.00,  0.00,  0.00000,  0.000,  0.00000,  0.00000,  0.00000,  0.00000,  1
2004,  2105,  '99',  0.00320,  0.30205,  0.00000,  0.00,  0.00,  0.00,  0.00000,  0.000,  0.00000,  0.00000,  0.00000,  0.00000,  1
2004,  2115,  '99',  0.04199,  1.17336,  0.00000,  0.00,  0.00,  0.00,  0.00000,  0.000,  0.00000,  0.00000,  0.00000,  0.00000,  1
2004,  2116,  '99',  0.01788,  0.61163,  0.00000,  0.00,  0.00,  0.00,  0.00000,  0.000,  0.00000,  0.00000,  0.00000,  0.00000,  1
2004,  2117,  '99',  0.03452,  1.35892,  0.00000,  0.00,  0.00,  0.00,  0.00000,  0.000,  0.00000,  0.00000,  0.00000,  0.00000,  1
2004,  2118,  '99',  0.04324,  1.50481,  0.00000,  0.00,  0.00,  0.00,  0.00000,  0.000,  0.00000,  0.00000,  0.00000,  0.00000,  1
2004,  2119,  '99',  0.02210,  0.74445,  0.00000,  0.00,  0.00,  0.00,  0.00000,  0.000,  0.00000,  0.00000,  0.00000,  0.00000,  1
2004,  2120,  '99',  0.04415,  1.44614,  0.00000,  0.00,  0.00,  0.00,  0.00000,  0.000,  0.00000,  0.00000,  0.00000,  0.00000,  1
2004,  5037,  '99',  0.22105,  3.41054,  0.00000,  0.00,  0.00,  0.00,  0.00000,  0.000,  0.00000,  0.00000,  0.00000,  0.00000,  1
2004,  5038,  '99',  0.22118,  3.52029,  0.00000,  0.00,  0.00,  0.00,  0.00000,  0.000,  0.00000,  0.00000,  0.00000,  0.00000,  1
2004,  5039,  '99',  0.10369,  1.54803,  0.00000,  0.00,  0.00,  0.00,  0.00000,  0.000,  0.00000,  0.00000,  0.00000,  0.00000,  1
2004,  5040,  '99',  0.32880,  4.60657,  0.00000,  0.00,  0.00,  0.00,  0.00000,  0.000,  0.00000,  0.00000,  0.00000,  0.00000,  1
2004,  5041,  '99',  0.22700,  3.20197,  0.00000,  0.00,  0.00,  0.00,  0.00000,  0.000,  0.00000,  0.00000,  0.00000,  0.00000,  1
2004,  5042,  '99',  0.23442,  3.77288,  0.00000,  0.00,  0.00,  0.00,  0.00000,  0.000,  0.00000,  0.00000,  0.00000,  0.00000,  1
2004,  5067,  '99',  0.17969,  2.57255,  0.00000,  0.00,  0.00,  0.00,  0.00000,  0.000,  0.00000,  0.00000,  0.00000,  0.00000,  1
...